*Heading
** Job name: first_attempt Model name: Model-1
** Generated by: Abaqus/CAE 2020
*Preprint, echo=NO, model=NO, history=NO, contact=NO
**
** PARTS
**
*Part, name=Part-1
*Node
      1,         30.5,           0.
      2,         30.5,         -1.5
      3,         150.,         -1.5
      4,         150.,           0.
      5,         30.5,           0.
      6,         30.5,          1.5
      7,           0.,          1.5
      8,           0.,           0.
      9,           0.,           0.
     10,           0.,         -1.5
     11,         150.,           0.
     12,         150.,          1.5
     13,         30.5, -0.500333309
     14,         30.5,  -1.00016665
     15,   30.5499992,         -1.5
     16,   30.6000004,         -1.5
     17,   30.6499996,         -1.5
     18,   30.7000008,         -1.5
     19,        30.75,         -1.5
     20,   30.7999992,         -1.5
** ... 19996 like lines cut
*Element, type=CPE4, Elset=Composite
   1,     1,    13,  9821,  4794
   2,    13,    14,  9822,  9821
   3,    14,     2,    15,  9822
   4,  4794,  9821,  9823,  4793
   5,  9821,  9822,  9824,  9823
   6,  9822,    15,    16,  9824
   7,  4793,  9823,  9825,  4792
   8,  9823,  9824,  9826,  9825
   9,  9824,    16,    17,  9826
  10,  4792,  9825,  9827,  4791
  11,  9825,  9826,  9828,  9827
  12,  9826,    17,    18,  9828
  13,  4791,  9827,  9829,  4790
  14,  9827,  9828,  9830,  9829
  15,  9828,    18,    19,  9830
  16,  4790,  9829,  9831,  4789
  17,  9829,  9830,  9832,  9831
  18,  9830,    19,    20,  9832
  19,  4789,  9831,  9833,  4788
  20,  9831,  9832,  9834,  9833
** ... 7516 like lines cut
********************************************
 9927,     6,  4796, 14839,  9820
 9928,  4796,  4795, 14840, 14839
 9929,  4795,     5,  7429, 14840
 9930,  9820, 14839, 14841,  9819
 9931, 14839, 14840, 14842, 14841
 9932, 14840,  7429,  7428, 14842
 9933,  9819, 14841, 14843,  9818
 9934, 14841, 14842, 14844, 14843
 9935, 14842,  7428,  7427, 14844
 9936,  9818, 14843, 14845,  9817
 9937, 14843, 14844, 14846, 14845
 9938, 14844,  7427,  7426, 14846
 9939,  9817, 14845, 14847,  9816
 9940, 14845, 14846, 14848, 14847
 9941, 14846,  7426,  7425, 14848
 9942,  9816, 14847, 14849,  9815
 9943, 14847, 14848, 14850, 14849
 9944, 14848,  7425,  7424, 14850
 9945,  9815, 14849, 14851,  9814
 9946, 14849, 14850, 14852, 14851
** ... 7150 like lines cut
*ELEMENT, TYPE=COH2D4, Elset=Cohesive_UMAT
7537,    1, 4794, 7429,    5
7538, 4794, 4793, 7428, 7429
7539, 4793, 4792, 7427, 7428
7540, 4792, 4791, 7426, 7427
7541, 4791, 4790, 7425, 7426
7542, 4790, 4789, 7424, 7425
7543, 4789, 4788, 7423, 7424
7544, 4788, 4787, 7422, 7423
7545, 4787, 4786, 7421, 7422
7546, 4786, 4785, 7420, 7421
7547, 4785, 4784, 7419, 7420
7548, 4784, 4783, 7418, 7419
7549, 4783, 4782, 7417, 7418
7550, 4782, 4781, 7416, 7417
7551, 4781, 4780, 7415, 7416
7552, 4780, 4779, 7414, 7415
7553, 4779, 4778, 7413, 7414
7554, 4778, 4777, 7412, 7413
7555, 4777, 4776, 7411, 7412
7556, 4776, 4775, 7410, 7411
** ... 2370 like lines cut
*Nset, nset=Composite, generate
     1,  19616,      1
*Nset, nset=Cohesive_UMAT
    1,    4,    5,   11, 2406, 2407, 2408, 2409, 2410, 2411, 2412, 2413, 2414, 2415, 2416, 2417
 2418, 2419, 2420, 2421, 2422, 2423, 2424, 2425, 2426, 2427, 2428, 2429, 2430, 2431, 2432, 2433
 2434, 2435, 2436, 2437, 2438, 2439, 2440, 2441, 2442, 2443, 2444, 2445, 2446, 2447, 2448, 2449
 2450, 2451, 2452, 2453, 2454, 2455, 2456, 2457, 2458, 2459, 2460, 2461, 2462, 2463, 2464, 2465
 2466, 2467, 2468, 2469, 2470, 2471, 2472, 2473, 2474, 2475, 2476, 2477, 2478, 2479, 2480, 2481
 2482, 2483, 2484, 2485, 2486, 2487, 2488, 2489, 2490, 2491, 2492, 2493, 2494, 2495, 2496, 2497
 2498, 2499, 2500, 2501, 2502, 2503, 2504, 2505, 2506, 2507, 2508, 2509, 2510, 2511, 2512, 2513
 2514, 2515, 2516, 2517, 2518, 2519, 2520, 2521, 2522, 2523, 2524, 2525, 2526, 2527, 2528, 2529
 2530, 2531, 2532, 2533, 2534, 2535, 2536, 2537, 2538, 2539, 2540, 2541, 2542, 2543, 2544, 2545
 2546, 2547, 2548, 2549, 2550, 2551, 2552, 2553, 2554, 2555, 2556, 2557, 2558, 2559, 2560, 2561
 2562, 2563, 2564, 2565, 2566, 2567, 2568, 2569, 2570, 2571, 2572, 2573, 2574, 2575, 2576, 2577
 2578, 2579, 2580, 2581, 2582, 2583, 2584, 2585, 2586, 2587, 2588, 2589, 2590, 2591, 2592, 2593
 2594, 2595, 2596, 2597, 2598, 2599, 2600, 2601, 2602, 2603, 2604, 2605, 2606, 2607, 2608, 2609
 2610, 2611, 2612, 2613, 2614, 2615, 2616, 2617, 2618, 2619, 2620, 2621, 2622, 2623, 2624, 2625
 2626, 2627, 2628, 2629, 2630, 2631, 2632, 2633, 2634, 2635, 2636, 2637, 2638, 2639, 2640, 2641
 2642, 2643, 2644, 2645, 2646, 2647, 2648, 2649, 2650, 2651, 2652, 2653, 2654, 2655, 2656, 2657
 2658, 2659, 2660, 2661, 2662, 2663, 2664, 2665, 2666, 2667, 2668, 2669, 2670, 2671, 2672, 2673
 2674, 2675, 2676, 2677, 2678, 2679, 2680, 2681, 2682, 2683, 2684, 2685, 2686, 2687, 2688, 2689
 2690, 2691, 2692, 2693, 2694, 2695, 2696, 2697, 2698, 2699, 2700, 2701, 2702, 2703, 2704, 2705
 2706, 2707, 2708, 2709, 2710, 2711, 2712, 2713, 2714, 2715, 2716, 2717, 2718, 2719, 2720, 2721
** ... 279 like lines cut
*Orientation, name=Ori-1
1., 0., 0., 0., 1., 0.
3, 0.
** Section: Section-1
*Solid Section, elset=Composite, orientation=Ori-1, material=Material-1
25.,
*Cohesive Section, elset=Cohesive_UMAT, material=Material-2, response=TRACTION SEPARATION
25., 
*End Part
**  
**
** ASSEMBLY
**
*Assembly, name=Assembly
**  
*Instance, name=Part-1-1, part=Part-1
*End Instance
**  
*Nset, nset=Fixed, instance=Part-1-1
    3,    4,   11,   12, 2404, 2405, 7430, 7431
*Elset, elset=Fixed, instance=Part-1-1
  7168,  7169,  7170, 17094, 17095, 17096
*Nset, nset=Top, instance=Part-1-1
 7,
*Nset, nset=Bottom, instance=Part-1-1
 10,
*End Assembly
** 
** 
** ELEMENT CONTROLS
** 
** *Section Controls, name=EC-1, VISCOSITY=1e-05
** 1., 1., 1.
** 
** MATERIALS
** 
*Material, name=Material-1
*Elastic, type=ENGINEERING CONSTANTS
 120000.,10500.,10500.,0.3,0.3,0.51,5250.,5250.
 3480.,
*Material, name = Material-2
*DEPVAR
1, 
*USER MATERIAL, TYPE=MECHANICAL, CONSTANTS=8, UNSYMM
1.0E5, 30.0, 58.9, 58.9, 0.26, 1.002, 1.002, 1.2 
** *Damage Initiation, criterion=QUADS
** 30.0, 58.9, 58.9 
** *Damage evolution, type=ENERGY, mixed mode behavior=BK, power=1.2 
** 0.26,1.002,1.002
** *Elastic, type=TRACTION 
** 1.0E5, 1.0E5, 1.0E5 
** 
** BOUNDARY CONDITIONS
** 
** Name: BC-1 Type: Displacement/Rotation
*Boundary
Fixed, 1, 1
Fixed, 2, 2
** ----------------------------------------------------------------
** 
** STEP: Step-1
** 
*Step, name=Step-1, nlgeom=YES, inc=10000
*Static
0.001, 1., 1e-15, 0.01
** 
** BOUNDARY CONDITIONS
** 
** Name: BC-2 Type: Displacement/Rotation
*Boundary
Top, 2, 2, 3.5
** Name: BC-3 Type: Displacement/Rotation
*Boundary
Bottom, 2, 2, -3.5
** 
** CONTROLS
** 
*Controls, reset
*Controls, parameters=time incrementation
20, 40, , , , , , 20, , ,  
**
** OUTPUT REQUESTS
** 
*Restart, write, frequency=0
** 
** FIELD OUTPUT: F-Output-1
** 
*Output, field
*Node Output
RF, U
*Element Output, directions=YES
LE, S, SDV
** 
** HISTORY OUTPUT: H-Output-1
** 
*Output, history, variable=PRESELECT
*End Step