*Heading
** Job name: ENF Model name: Model-1
** Generated by: Abaqus/CAE 2020
*Preprint, echo=NO, model=NO, history=NO, contact=NO
**
** PARTS
**
*Part, name=Part-1
*Node
      1,         -25.,           0.
      2,         -25.,         2.25
      3,  -25.3999996,         2.25
      4,  -25.3999996,           0.
      5,           0.,           0.
      6,           0.,         2.25
      7,   76.1999969,           0.
      8,        25.25,         2.25
      9,   76.1999969,         2.25
     10,         -25.,        -2.25
     11,         -25.,           0.
     12,  -25.3999996,           0.
     13,  -25.3999996,        -2.25
     14,           0.,           0.
     15,   76.1999969,           0.
     16,           0.,        -2.25
     17,        25.25,        -2.25
     18,   76.1999969,        -2.25
     19,         -25.,  0.750666678
     20,         -25.,   1.50033331
** ... 12588 like lines cut
*Element, type=CPE4I
1,  1, 19, 22,  4
2, 19, 20, 21, 22
3, 20,  2,  3, 21
  4,    5,   23, 6321,  122
  5,   23,   24, 6322, 6321
  6,   24,    6,   25, 6322
  7,  122, 6321, 6323,  121
  8, 6321, 6322, 6324, 6323
  9, 6322,   25,   26, 6324
 10,  121, 6323, 6325,  120
 11, 6323, 6324, 6326, 6325
 12, 6324,   26,   27, 6326
 13,  120, 6325, 6327,  119
 14, 6325, 6326, 6328, 6327
 15, 6326,   27,   28, 6328
 16,  119, 6327, 6329,  118
 17, 6327, 6328, 6330, 6329
 18, 6328,   28,   29, 6330
 19,  118, 6329, 6331,  117
 20, 6329, 6330, 6332, 6331
** ... 9430 like lines cut
*Element, type=COH2D4
4729,   14, 3174,  123,    5
4730, 3174, 3175,  124,  123
4731, 3175, 3176,  125,  124
4732, 3176, 3177,  126,  125
4733, 3177, 3178,  127,  126
4734, 3178, 3179,  128,  127
4735, 3179, 3180,  129,  128
4736, 3180, 3181,  130,  129
4737, 3181, 3182,  131,  130
4738, 3182, 3183,  132,  131
4739, 3183, 3184,  133,  132
4740, 3184, 3185,  134,  133
4741, 3185, 3186,  135,  134
4742, 3186, 3187,  136,  135
4743, 3187, 3188,  137,  136
4744, 3188, 3189,  138,  137
4745, 3189, 3190,  139,  138
4746, 3190, 3191,  140,  139
4747, 3191, 3192,  141,  140
4748, 3192, 3193,  142,  141
** ... 1504 like lines cut
*Nset, nset=_PickedSet3, internal, generate
     1,  12608,      1
*Elset, elset=_PickedSet3, internal
     1,     2,     3,     4,     5,     6,     7,     8,     9,    10,    11,    12,    13,    14,    15,    16
    17,    18,    19,    20,    21,    22,    23,    24,    25,    26,    27,    28,    29,    30,    31,    32
    33,    34,    35,    36,    37,    38,    39,    40,    41,    42,    43,    44,    45,    46,    47,    48
    49,    50,    51,    52,    53,    54,    55,    56,    57,    58,    59,    60,    61,    62,    63,    64
    65,    66,    67,    68,    69,    70,    71,    72,    73,    74,    75,    76,    77,    78,    79,    80
    81,    82,    83,    84,    85,    86,    87,    88,    89,    90,    91,    92,    93,    94,    95,    96
    97,    98,    99,   100,   101,   102,   103,   104,   105,   106,   107,   108,   109,   110,   111,   112
   113,   114,   115,   116,   117,   118,   119,   120,   121,   122,   123,   124,   125,   126,   127,   128
   129,   130,   131,   132,   133,   134,   135,   136,   137,   138,   139,   140,   141,   142,   143,   144
   145,   146,   147,   148,   149,   150,   151,   152,   153,   154,   155,   156,   157,   158,   159,   160
   161,   162,   163,   164,   165,   166,   167,   168,   169,   170,   171,   172,   173,   174,   175,   176
   177,   178,   179,   180,   181,   182,   183,   184,   185,   186,   187,   188,   189,   190,   191,   192
   193,   194,   195,   196,   197,   198,   199,   200,   201,   202,   203,   204,   205,   206,   207,   208
   209,   210,   211,   212,   213,   214,   215,   216,   217,   218,   219,   220,   221,   222,   223,   224
   225,   226,   227,   228,   229,   230,   231,   232,   233,   234,   235,   236,   237,   238,   239,   240
   241,   242,   243,   244,   245,   246,   247,   248,   249,   250,   251,   252,   253,   254,   255,   256
   257,   258,   259,   260,   261,   262,   263,   264,   265,   266,   267,   268,   269,   270,   271,   272
   273,   274,   275,   276,   277,   278,   279,   280,   281,   282,   283,   284,   285,   286,   287,   288
   289,   290,   291,   292,   293,   294,   295,   296,   297,   298,   299,   300,   301,   302,   303,   304
   305,   306,   307,   308,   309,   310,   311,   312,   313,   314,   315,   316,   317,   318,   319,   320
** ... 571 like lines cut
*Nset, nset=_PickedSet5, internal
    5,    7,   14,   15,  123,  124,  125,  126,  127,  128,  129,  130,  131,  132,  133,  134
  135,  136,  137,  138,  139,  140,  141,  142,  143,  144,  145,  146,  147,  148,  149,  150
  151,  152,  153,  154,  155,  156,  157,  158,  159,  160,  161,  162,  163,  164,  165,  166
  167,  168,  169,  170,  171,  172,  173,  174,  175,  176,  177,  178,  179,  180,  181,  182
  183,  184,  185,  186,  187,  188,  189,  190,  191,  192,  193,  194,  195,  196,  197,  198
  199,  200,  201,  202,  203,  204,  205,  206,  207,  208,  209,  210,  211,  212,  213,  214
  215,  216,  217,  218,  219,  220,  221,  222,  223,  224,  225,  226,  227,  228,  229,  230
  231,  232,  233,  234,  235,  236,  237,  238,  239,  240,  241,  242,  243,  244,  245,  246
  247,  248,  249,  250,  251,  252,  253,  254,  255,  256,  257,  258,  259,  260,  261,  262
  263,  264,  265,  266,  267,  268,  269,  270,  271,  272,  273,  274,  275,  276,  277,  278
  279,  280,  281,  282,  283,  284,  285,  286,  287,  288,  289,  290,  291,  292,  293,  294
  295,  296,  297,  298,  299,  300,  301,  302,  303,  304,  305,  306,  307,  308,  309,  310
  311,  312,  313,  314,  315,  316,  317,  318,  319,  320,  321,  322,  323,  324,  325,  326
  327,  328,  329,  330,  331,  332,  333,  334,  335,  336,  337,  338,  339,  340,  341,  342
  343,  344,  345,  346,  347,  348,  349,  350,  351,  352,  353,  354,  355,  356,  357,  358
  359,  360,  361,  362,  363,  364,  365,  366,  367,  368,  369,  370,  371,  372,  373,  374
  375,  376,  377,  378,  379,  380,  381,  382,  383,  384,  385,  386,  387,  388,  389,  390
  391,  392,  393,  394,  395,  396,  397,  398,  399,  400,  401,  402,  403,  404,  405,  406
  407,  408,  409,  410,  411,  412,  413,  414,  415,  416,  417,  418,  419,  420,  421,  422
  423,  424,  425,  426,  427,  428,  429,  430,  431,  432,  433,  434,  435,  436,  437,  438
** ... 171 like lines cut
*Elset, elset=_PickedSet5, internal, generate
 4729,  6252,     1
*Orientation, name=Ori-1
1., 0., 0., 0., 1., 0.
3, 0.
** Section: Section-1
*Solid Section, elset=_PickedSet3, orientation=Ori-1, material=Material-1
25.4,
** Section: Section-2
*Cohesive Section, elset=_PickedSet5, material=Material-2, response=TRACTION SEPARATION
, 25.4
*End Part
**  
**
** ASSEMBLY
**
*Assembly, name=Assembly
**  
*Instance, name=Part-1-1, part=Part-1
*End Instance
**  
*Nset, nset=Left, instance=Part-1-1
 13,
*Nset, nset=Load, instance=Part-1-1
 8,
*Nset, nset=Right, instance=Part-1-1
 18,
*Elset, elset=_m_Surf-1_S4, internal, instance=Part-1-1, generate
   1,  151,    3
*Surface, type=ELEMENT, name=m_Surf-1
_m_Surf-1_S4, S4
*Elset, elset=_s_Surf-1_S2, internal, instance=Part-1-1
 4728, 6255, 6258, 6261, 6264, 6267, 6270, 6273, 6276, 6279, 6282, 6285, 6288, 6291, 6294, 6297
 6300, 6303, 6306, 6309, 6312, 6315, 6318, 6321, 6324, 6327, 6330, 6333, 6336, 6339, 6342, 6345
 6348, 6351, 6354, 6357, 6360, 6363, 6366, 6369, 6372, 6375, 6378, 6381, 6384, 6387, 6390, 6393
 6396, 6399, 6402
*Surface, type=ELEMENT, name=s_Surf-1
_s_Surf-1_S2, S2
*End Assembly
** 
** MATERIALS
** 
*Material, name=Material-1
*Elastic, type=ENGINEERING CONSTANTS
120000.,10500.,10500.,  0.30,  0.30,  0.51, 5250., 5250.
 3480.,
*Material, name=Material-2
*Depvar
1,
*User material,TYPE=MECHANICAL,constants = 8, UNSYMM
1.0e5, 30., 58.9, 58.9, 0.26, 1.002, 1.002, 2.0
** 
** INTERACTION PROPERTIES
** 
*Surface Interaction, name=IntProp-1
1.,
*Friction
0.,
*Surface Behavior, pressure-overclosure=HARD
** 
** BOUNDARY CONDITIONS
** 
** Name: BC-1 Type: Displacement/Rotation
*Boundary
** Left, 1, 1
Left, 2, 2
** Name: BC-2 Type: Displacement/Rotation
*Boundary
Right, 1, 1
Right, 2, 2
** 
** INTERACTIONS
** 
** Interaction: Int-1
*Contact Pair, interaction=IntProp-1, small sliding
s_Surf-1, m_Surf-1
** ----------------------------------------------------------------
** 
** STEP: Step-1
** 
*Step, name=Step-1, nlgeom=NO,inc=10000
*Static
1e-3, 1.0, 1e-15, 0.01
** 
** BOUNDARY CONDITIONS
** 
** Name: BC-3 Type: Displacement/Rotation
*Boundary
Load, 2, 2, -3.0
** 
** CONTROLS
**
*Solution Technique, type=QUASI-NEWTON, reform kernel=25 
*Controls, reset
*Controls, parameters=time incrementation
1000,1200,1500,2000,1600,4,20,20, , ,50, ,
0.25,0.5,0.75, ,0.25,0.25,1.5,
 , , , , , , ,
,
** OUTPUT REQUESTS
** 
*Restart, write, frequency=0
** 
** FIELD OUTPUT: F-Output-1
** 
*Output, field,frequency=1
*Node Output
RF, U
*Element Output, directions=YES
LE, S,SDV
** 
** HISTORY OUTPUT: H-Output-1
** 
*Output, history,frequency=1
*node output,nset=Load
RF2,U2
*End Step