*Heading
** Job name: MMB_0_5_Fatigue Model name: Model-1
** Generated by: Abaqus/CAE 2020
*Preprint, echo=NO, model=NO, history=NO, contact=NO
**
** PARTS
**
*Part, name=Part-1
*Node
      1,         -25.,           0.
      2,         -25.,         2.25
      3,  -25.3999996,         2.25
      4,  -25.3999996,           0.
      5,         -25.,        -2.25
      6,         -25.,           0.
      7,  -25.3999996,           0.
      8,  -25.3999996,        -2.25
      9,           0.,           0.
     10,           0.,         2.25
     11,           0.,        -2.25
     12,           0.,           0.
     13,   75.4000015,           0.
     14,          25.,         2.25
     15,   75.4000015,         2.25
     16,   75.4000015,           0.
     17,          25.,        -2.25
     18,   75.4000015,        -2.25
     19,         -25.,  0.750666678
     20,         -25.,   1.50033331
** ... 12460 like lines cut
*Element, type=CPE4I
1,  1, 19, 22,  4
2, 19, 20, 21, 22
3, 20,  2,  3, 21
4,  5, 23, 26,  8
5, 23, 24, 25, 26
6, 24,  6,  7, 25
  7,    9,   27, 6257,  126
  8,   27,   28, 6258, 6257
  9,   28,   10,   29, 6258
 10,  126, 6257, 6259,  125
 11, 6257, 6258, 6260, 6259
 12, 6258,   29,   30, 6260
 13,  125, 6259, 6261,  124
 14, 6259, 6260, 6262, 6261
 15, 6260,   30,   31, 6262
 16,  124, 6261, 6263,  123
 17, 6261, 6262, 6264, 6263
 18, 6262,   31,   32, 6264
 19,  123, 6263, 6265,  122
 20, 6263, 6264, 6266, 6265
** ... 9334 like lines cut
*Element, type=COH2D4
 9355,   12, 4748,  227,    9
 9356, 4748, 4747,  228,  227
 9357, 4747, 4746,  229,  228
 9358, 4746, 4745,  230,  229
 9359, 4745, 4744,  231,  230
 9360, 4744, 4743,  232,  231
 9361, 4743, 4742,  233,  232
 9362, 4742, 4741,  234,  233
 9363, 4741, 4740,  235,  234
 9364, 4740, 4739,  236,  235
 9365, 4739, 4738,  237,  236
 9366, 4738, 4737,  238,  237
 9367, 4737, 4736,  239,  238
 9368, 4736, 4735,  240,  239
 9369, 4735, 4734,  241,  240
 9370, 4734, 4733,  242,  241
 9371, 4733, 4732,  243,  242
 9372, 4732, 4731,  244,  243
 9373, 4731, 4730,  245,  244
 9374, 4730, 4729,  246,  245
** ... 1488 like lines cut
*Nset, nset=_PickedSet3, internal, generate
     1,  12480,      1
*Elset, elset=_PickedSet3, internal, generate
    1,  9354,     1
*Nset, nset=_PickedSet4, internal
    9,   12,   13,   16,  227,  228,  229,  230,  231,  232,  233,  234,  235,  236,  237,  238
  239,  240,  241,  242,  243,  244,  245,  246,  247,  248,  249,  250,  251,  252,  253,  254
  255,  256,  257,  258,  259,  260,  261,  262,  263,  264,  265,  266,  267,  268,  269,  270
  271,  272,  273,  274,  275,  276,  277,  278,  279,  280,  281,  282,  283,  284,  285,  286
  287,  288,  289,  290,  291,  292,  293,  294,  295,  296,  297,  298,  299,  300,  301,  302
  303,  304,  305,  306,  307,  308,  309,  310,  311,  312,  313,  314,  315,  316,  317,  318
  319,  320,  321,  322,  323,  324,  325,  326,  327,  328,  329,  330,  331,  332,  333,  334
  335,  336,  337,  338,  339,  340,  341,  342,  343,  344,  345,  346,  347,  348,  349,  350
  351,  352,  353,  354,  355,  356,  357,  358,  359,  360,  361,  362,  363,  364,  365,  366
  367,  368,  369,  370,  371,  372,  373,  374,  375,  376,  377,  378,  379,  380,  381,  382
  383,  384,  385,  386,  387,  388,  389,  390,  391,  392,  393,  394,  395,  396,  397,  398
  399,  400,  401,  402,  403,  404,  405,  406,  407,  408,  409,  410,  411,  412,  413,  414
  415,  416,  417,  418,  419,  420,  421,  422,  423,  424,  425,  426,  427,  428,  429,  430
  431,  432,  433,  434,  435,  436,  437,  438,  439,  440,  441,  442,  443,  444,  445,  446
  447,  448,  449,  450,  451,  452,  453,  454,  455,  456,  457,  458,  459,  460,  461,  462
  463,  464,  465,  466,  467,  468,  469,  470,  471,  472,  473,  474,  475,  476,  477,  478
  479,  480,  481,  482,  483,  484,  485,  486,  487,  488,  489,  490,  491,  492,  493,  494
  495,  496,  497,  498,  499,  500,  501,  502,  503,  504,  505,  506,  507,  508,  509,  510
  511,  512,  513,  514,  515,  516,  517,  518,  519,  520,  521,  522,  523,  524,  525,  526
  527,  528,  529,  530,  531,  532,  533,  534,  535,  536,  537,  538,  539,  540,  541,  542
** ... 169 like lines cut
*Elset, elset=_PickedSet4, internal, generate
  9355,  10862,      1
*Orientation, name=Ori-1
1., 0., 0., 0., 1., 0.
3, 0.
** Section: Section-1
*Solid Section, elset=_PickedSet3,orientation=Ori-1, material=Material-1
25.4,
** Section: Section-2
*Cohesive Section, elset=_PickedSet4, material=Material-2, response=TRACTION SEPARATION
, 25.4
*End Part
**  
*Part, name=Part-2
*Node
      1,          25.,        12.25
      2,          25.,         2.25
      3,   66.3000031,        12.25
      4,  -25.3999996,        12.25
      5,  -25.3999996,         2.25
      6,          25.,        11.25
      7,          25.,        10.25
      8,          25.,         9.25
      9,          25.,         8.25
     10,          25.,         7.25
     11,          25.,         6.25
     12,          25.,         5.25
     13,          25.,         4.25
     14,          25.,         3.25
     15,   26.0073166,        12.25
     16,   27.0146351,        12.25
     17,   28.0219517,        12.25
     18,   29.0292683,        12.25
     19,   30.0365849,        12.25
     20,   31.0439034,        12.25
** ... 92 like lines cut
*Element, type=R2D2
 1,  1,  6
 2,  6,  7
 3,  7,  8
 4,  8,  9
 5,  9, 10
 6, 10, 11
 7, 11, 12
 8, 12, 13
 9, 13, 14
10, 14,  2
11,  1, 15
12, 15, 16
13, 16, 17
14, 17, 18
15, 18, 19
16, 19, 20
17, 20, 21
18, 21, 22
19, 22, 23
20, 23, 24
** ... 91 like lines cut
*Node
    113,   66.3000031,        12.25,           0.
*Nset, nset=Part-2-RefPt_, internal
113, 
*Nset, nset=RP_Part2
 113,
*Elset, elset=Part-2, generate
   1,  111,    1
*End Part
**  
**
** ASSEMBLY
**
*Assembly, name=Assembly
**  
*Instance, name=Part-1-1, part=Part-1
*End Instance
**  
*Instance, name=Part-2-1, part=Part-2
*End Instance
**  
*Nset, nset=Left, instance=Part-1-1
 8,
*Nset, nset=Left_Beam, instance=Part-1-1
 3,
*Nset, nset=Left_Lever, instance=Part-2-1
 5,
*Nset, nset=Middle_Beam, instance=Part-1-1
 14,
*Nset, nset=Right, instance=Part-1-1
 18,
*Nset, nset=Right_Lever, instance=Part-2-1
 2,
*Elset, elset=_Left_Surf_S2, internal, instance=Part-1-1
   3,   9,  12,  15,  18,  21,  24,  27,  30,  33,  36,  39,  42,  45,  48,  51
  54,  57,  60,  63,  66,  69,  72,  75,  78,  81,  84,  87,  90,  93,  96,  99
 102, 105, 108, 111, 114, 117, 120, 123, 126, 129, 132, 135, 138, 141, 144, 147
 150, 153, 156
*Surface, type=ELEMENT, name=Left_Surf
_Left_Surf_S2, S2
*Elset, elset=_Right_Surf_S3, internal, instance=Part-1-1, generate
 3323,  4830,     1
*Surface, type=ELEMENT, name=Right_Surf
_Right_Surf_S3, S3
*Surface, type=NODE, name=Left_Lever_CNS_, internal
Left_Lever, 1.
*Surface, type=NODE, name=Right_Lever_CNS_, internal
Right_Lever, 1.
*Surface, type=NODE, name=Left_Beam_CNS_, internal
Left_Beam, 1.
*Rigid Body, ref node=Part-2-1.Part-2-RefPt_, elset=Part-2-1.Part-2
** Constraint: Constraint-1
*MPC
PIN, Left_Beam, Left_Lever
** Constraint: Constraint-2
*Equation
2
Middle_Beam, 2, -1.
Right_Lever, 2, 1.
*End Assembly
** 
** MATERIALS
** 
*Material, name=Material-1
*Elastic, type=ENGINEERING CONSTANTS
120000.,10500.,10500.,0.3,0.3,0.51,5250.,5250.
3480.,
*Material, name = Material-2
*DEPVAR
1, 
*USER MATERIAL, TYPE=MECHANICAL, CONSTANTS=8, UNSYMM
1.0E5, 30.0, 58.9, 58.9, 0.26, 1.002, 1.002, 1.198
** 
** INTERACTION PROPERTIES
** 
*Surface Interaction, name=IntProp-1
1.,
*Friction, slip tolerance=0.005
 0.2,
*Surface Behavior, pressure-overclosure=HARD
** 
** BOUNDARY CONDITIONS
** 
** Name: BC-1 Type: Displacement/Rotation
*Boundary
Left, 2, 2
** Name: BC-2 Type: Displacement/Rotation
*Boundary
Right, 1, 1
Right, 2, 2
** INTERACTIONS
** 
** Interaction: Int-1
*Contact Pair, interaction=IntProp-1, small sliding
Left_Lever_CNS_, Left_Surf
** Interaction: Int-2
*Contact Pair, interaction=IntProp-1, small sliding
Right_Lever_CNS_, Right_Surf
** ----------------------------------------------------------------
** 
** STEP: Step-1
** 
*Step, name=Step-1, nlgeom=NO,inc=10000
*Static
1e-3, 1.0, 1e-15, 0.01
** 
** BOUNDARY CONDITIONS
** 
** Name: BC-3 Type: Displacement/Rotation
*Boundary
Part-2-1.RP_Part2, 2, 2, -3.0
** 
** CONTROLS
** 
*Solution Technique, type=QUASI-NEWTON, reform kernel=25 
*Controls, reset
*Controls, parameters=time incrementation
1000,1200,1500,2000,1600,4,20,20, , ,50, ,
0.25,0.5,0.75, ,0.25,0.25,1.5,
 , , , , , , ,
,
** OUTPUT REQUESTS
** 
*Restart, write, frequency=0
** 
** FIELD OUTPUT: F-Output-1
** 
*Output, field,frequency=1
*Node Output
RF, U
*Element Output, directions=YES
LE, S,SDV
** 
** HISTORY OUTPUT: H-Output-1
** 
*Output, history,frequency=1
*node output,nset=Part-2-1.RP_Part2
RF2,U2
*End Step
** 